Version 4
SHEET 1 880 680
WIRE 176 160 176 48
WIRE 176 160 -48 160
WIRE 256 160 176 160
WIRE 384 160 384 48
WIRE 384 160 320 160
WIRE 448 160 384 160
WIRE 688 160 544 160
WIRE -48 176 -48 160
WIRE -48 288 -48 256
WIRE 448 288 448 192
WIRE 544 288 544 192
WIRE 544 288 448 288
WIRE 688 288 688 240
WIRE 688 288 544 288
WIRE 448 320 448 288
FLAG -48 288 0
FLAG 448 320 0
SYMBOL xferritebead1 288 160 R90
WINDOW 0 -16 0 VBottom 0
WINDOW 3 16 0 VTop 0
SYMATTR InstName U1
SYMATTR Value HZ0805D102R-10
SYMBOL voltage -48 160 R0
WINDOW 123 24 160 Left 0
WINDOW 39 24 132 Left 0
SYMATTR InstName V1
SYMATTR Value PULSE(0 3 0 1n 1n 625n 1250n 1)
SYMATTR Value2 AC 1
SYMATTR SpiceLine Rser=5
SYMBOL tline 496 176 R0
SYMATTR InstName T1
SYMATTR Value Td=12n Z0=100
SYMBOL res 672 144 R0
SYMATTR InstName R1
SYMATTR Value 75
TEXT -264 -200 Left 0 !.include "LairdTech_v2_0.lib"
TEXT -264 -152 Left 0 !;tran 0 1.5u 0 100p
TEXT -264 -96 Left 0 !.ac oct 10 10k 200meg
